Circuit: * C:\Users\hoppeb\Documents\GitHub\BatteryModeling\Cell Charger\BuckConverter_RM.asc

Direct Newton iteration for .op point succeeded.

Date: Tue Oct 01 17:14:58 2024
Total elapsed time: 0.765 seconds.

tnom = 27
temp = 27
method = modified trap
totiter = 169779
traniter = 169755
tranpoints = 78402
accept = 65853
rejected = 12549
matrix size = 13
fillins = 0
solver = Normal
Matrix Compiler1: 514 bytes object code size  0.2/0.1/[0.1]
Matrix Compiler2: 1015 bytes object code size  0.1/0.2/[0.1]

