Circuit: * C:\Users\hoppeb\Documents\GitHub\BatteryModeling\Cell Charger\BuckConverter_RM.asc

Direct Newton iteration for .op point succeeded.

Date: Fri Oct 04 16:27:08 2024
Total elapsed time: 2.857 seconds.

tnom = 27
temp = 27
method = modified trap
totiter = 1165827
traniter = 1165803
tranpoints = 418746
accept = 331060
rejected = 87686
matrix size = 13
fillins = 0
solver = Normal
Matrix Compiler1: 514 bytes object code size  0.1/0.1/[0.1]
Matrix Compiler2: off  [0.1]/0.1/0.1

