Circuit: * C:\Users\hoppeb\Documents\GitHub\BatteryModeling\Cell Charger\BuckConverter_RM.asc

Direct Newton iteration for .op point succeeded.

Date: Wed Oct 09 01:22:20 2024
Total elapsed time: 2.805 seconds.

tnom = 27
temp = 27
method = modified trap
totiter = 1143732
traniter = 1143708
tranpoints = 414467
accept = 323353
rejected = 91114
matrix size = 15
fillins = 0
solver = Normal
Matrix Compiler1: 578 bytes object code size  0.1/0.1/[0.0]
Matrix Compiler2: off  [0.1]/0.1/0.1

