Circuit: * C:\Users\hoppeb\Downloads\BuckConverter_RM.asc

Direct Newton iteration for .op point succeeded.

Date: Tue Sep 17 16:53:59 2024
Total elapsed time: 0.236 seconds.

tnom = 27
temp = 27
method = modified trap
totiter = 30615
traniter = 30606
tranpoints = 15304
accept = 13305
rejected = 1999
matrix size = 6
fillins = 0
solver = Normal
Matrix Compiler1: 200 bytes object code size  0.0/0.0/[0.0]
Matrix Compiler2:      34 opcodes  0.0/[0.0]/0.1

