Circuit: * C:\Users\hoppeb\Documents\GitHub\BatteryModeling\Cell Charger\Draft1.asc

Direct Newton iteration for .op point succeeded.

Date: Tue Oct 01 16:28:40 2024
Total elapsed time: 11.479 seconds.

tnom = 27
temp = 27
method = modified trap
totiter = 3407999
traniter = 3407975
tranpoints = 1268984
accept = 1057558
rejected = 211426
matrix size = 11
fillins = 0
solver = Normal
Matrix Compiler1: 414 bytes object code size  0.1/0.1/[0.1]
Matrix Compiler2: off  [0.1]/0.1/0.1

