Circuit: * C:\Users\hoppeb\Documents\GitHub\BatteryModeling\Cell Charger\Draft4.asc

WARNING: Less than two connections to node VS2.  This node is used by VS2.
Direct Newton iteration for .op point succeeded.

Date: Tue Oct 01 17:17:08 2024
Total elapsed time: 0.100 seconds.

tnom = 27
temp = 27
method = modified trap
totiter = 3830
traniter = 3821
tranpoints = 1902
accept = 1753
rejected = 149
matrix size = 8
fillins = 0
solver = Normal
Matrix Compiler1:      15 opcodes  0.1/[0.0]/0.0
Matrix Compiler2: 474 bytes object code size  0.1/0.1/[0.1]

