Circuit: * C:\Users\hoppeb\Documents\GitHub\BatteryModeling\Cell Charger\Draft3.asc

WARNING: Node NC_01 is floating.

Direct Newton iteration for .op point succeeded.

Date: Tue Oct 01 16:47:33 2024
Total elapsed time: 0.399 seconds.

tnom = 27
temp = 27
method = modified trap
totiter = 156775
traniter = 156750
tranpoints = 70751
accept = 61699
rejected = 9052
matrix size = 6
fillins = 0
solver = Normal
Matrix Compiler1: 146 bytes object code size  0.0/0.0/[0.0]
Matrix Compiler2: off  [0.0]/0.0/0.1

