Circuit: * C:\Users\hoppeb\Documents\GitHub\BatteryModeling\Cell Charger\Draft1.asc

Direct Newton iteration for .op point succeeded.

Date: Fri Oct 04 16:25:55 2024
Total elapsed time: 0.164 seconds.

tnom = 27
temp = 27
method = modified trap
totiter = 31256
traniter = 31250
tranpoints = 15304
accept = 13305
rejected = 1999
matrix size = 5
fillins = 0
solver = Normal
Matrix Compiler1: 204 bytes object code size  0.1/0.0/[0.0]
Matrix Compiler2: 311 bytes object code size  0.0/0.1/[0.0]

