Circuit: * C:\Users\hoppeb\Documents\GitHub\BatteryModeling\Cell Charger\Draft1.asc

Limiting rise time of source v1 to 2.5e-006
Limiting fall time of source v1 to 2.5e-006
Direct Newton iteration for .op point succeeded.

Date: Thu Oct 24 22:00:10 2024
Total elapsed time: 1.556 seconds.

tnom = 27
temp = 27
method = modified trap
totiter = 820102
traniter = 820077
tranpoints = 410029
accept = 340020
rejected = 70009
matrix size = 8
fillins = 0
solver = Normal
Matrix Compiler1:      18 opcodes  0.1/[0.0]/0.0
Matrix Compiler2: off  [0.1]/0.1/0.1

