Circuit: * C:\Users\hoppeb\Documents\GitHub\BatteryModeling\Cell Charger\SynchronousBuckConverter_RM.asc

WARNING: Less than two connections to node +5.  This node is used by V2.
WARNING: Less than two connections to node -5.  This node is used by V3.
Direct Newton iteration for .op point succeeded.
Heightened Def Con from 0.00540429 +++++++++++++++++++++++++++to 0.00540429
Heightened Def Con from 0.00551439 +++++++++++++++++++++++++++to 0.0055144
Heightened Def Con from 0.00566439 +++++++++++++++++++++++++++to 0.00566439
Heightened Def Con from 0.00576388 ++++++++++++++++++++++++to 0.00576388
Heightened Def Con from 0.0058644 +++++++++++++++++++++++++++to 0.0058644
Heightened Def Con from 0.0058944 +++++++++++++++++++++++++++to 0.0058944
Heightened Def Con from 0.00596385 +++++++++++++++++++++++++to 0.00596385
Heightened Def Con from 0.00610403 ++++++++++++++++++++++++to 0.00610403
Heightened Def Con from 0.00782403 +++++++++++++++++++++++++to 0.00782403
Heightened Def Con from 0.010355 ++++++++++++++++++++++to 0.010355
Heightened Def Con from 0.011165 to 0.011165

Date: Fri Oct 04 16:30:21 2024
Total elapsed time: 6.944 seconds.

tnom = 27
temp = 27
method = modified trap
totiter = 4199161
traniter = 4199152
tranpoints = 1597077
accept = 1350375
rejected = 246968
matrix size = 12
fillins = 0
solver = Normal
Matrix Compiler1: 302 bytes object code size  0.1/0.0/[0.0]
Matrix Compiler2: off  [0.0]/0.1/0.0

