Circuit: * C:\Users\hoppeb\Documents\GitHub\BatteryModeling\Cell Charger\SynchronousBuckConverter_RM.asc

WARNING: Less than two connections to node +5.  This node is used by V2.
WARNING: Less than two connections to node -5.  This node is used by V3.
Direct Newton iteration for .op point succeeded.
Heightened Def Con from 0.0115149 ++++++++++++++++++++++++++++to 0.0115149
Heightened Def Con from 0.0634142 ++++++++++++++++++++++++++++to 0.0634142
Heightened Def Con from 0.0654142 ++++++++++++++++++++++++++++to 0.0654142
Heightened Def Con from 0.0656142 ++++++++++++++++++++++++++++to 0.0656142
Heightened Def Con from 0.0663142 ++++++++++++++++++++++++++++to 0.0663142
Heightened Def Con from 0.0763128 +++++++++++++++++++++++++++to 0.0763128
Heightened Def Con from 0.0854141 ++++++++++++++++++++++++++++to 0.0854141
Heightened Def Con from 0.0921152 ++++++++++++++++++++++++++++to 0.0921152
Heightened Def Con from 0.0944154 ++++++++++++++++++++++++++++to 0.0944154
Heightened Def Con from 0.0995152 ++++++++++++++++++++++++++++to 0.0995152

Date: Fri Oct 04 16:28:59 2024
Total elapsed time: 1.125 seconds.

tnom = 27
temp = 27
method = modified trap
totiter = 591841
traniter = 591832
tranpoints = 223154
accept = 190445
rejected = 32998
matrix size = 12
fillins = 0
solver = Normal
Matrix Compiler1: 302 bytes object code size  0.1/0.0/[0.0]
Matrix Compiler2: off  [0.0]/0.1/0.1

