Circuit: * C:\Users\hoppeb\Documents\GitHub\BatteryModeling\VCU\PWM to Analog with op amp buffer.asc

Limiting rise time of source v1 to 2.5e-006
Limiting fall time of source v1 to 2.5e-006
Direct Newton iteration for .op point succeeded.

Date: Sat Nov 02 15:59:19 2024
Total elapsed time: 13.131 seconds.

tnom = 27
temp = 27
method = modified trap
totiter = 7856015
traniter = 7855988
tranpoints = 2668532
accept = 1947915
rejected = 720617
matrix size = 9
fillins = 0
solver = Normal
Matrix Compiler1: 314 bytes object code size  0.1/0.1/[0.1]
Matrix Compiler2: off  [0.1]/0.1/0.1

