Circuit: * C:\Users\hoppeb\Documents\GitHub\BatteryModeling\VCU\PWM to Analog Filter.asc

Limiting rise time of source v1 to 2.5e-006
Limiting fall time of source v1 to 2.5e-006
.OP point found by inspection.

Date: Mon Oct 28 23:09:56 2024
Total elapsed time: 2.245 seconds.

tnom = 27
temp = 27
method = modified trap
totiter = 1480064
traniter = 1480064
tranpoints = 740033
accept = 600028
rejected = 140005
matrix size = 4
fillins = 0
solver = Normal
Matrix Compiler1: 100 bytes object code size  0.0/0.1/[0.0]
Matrix Compiler2: 248 bytes object code size  0.0/0.1/[0.0]

